11
FeC10H10
Fe -1.419372510 0.000000000 2.309959184
C -2.178866684 -1.731342739 1.550810272
C -0.027825162 -0.383528594 3.747731052
C -1.156183165 -1.217785203 0.697998664
C -3.201550203 -0.741676386 1.658464779
C -1.291931512 -0.089277163 4.341331757
C 0.362805183 0.741676386 2.961453588
C -1.546813509 0.089277163 0.278586611
C -2.810919859 0.383528594 0.872187315
C -1.682561856 1.217785203 3.921919704
C -0.659878337 1.731342739 3.069108095
