11
FeC10H10
Fe      -0.389631670      0.000000000     -1.739427096
C        1.485634244      0.300744780     -2.476730617
C       -0.959472117      1.740722845     -0.847321727
C        0.583607432     -0.040440874     -3.528800265
C        1.485634244     -0.768689002     -1.531626416
C       -0.959472117      0.671289064      0.097782475
C       -1.861498929      1.399537191     -1.899391374
C        0.026124203     -1.320738986     -3.233910865
C        0.583607432     -1.770821081     -1.999589544
C       -1.861498929     -0.330843016     -0.370180654
C       -2.418982158      0.119239079     -1.604501974
